  
       XFOIL         Version 6.99
  
 Calculated polar for: NACA 2410                                       
  
 1 1 Reynolds number fixed          Mach number fixed         
  
 xtrf =   1.000 (top)        1.000 (bottom)  
 Mach =   0.000     Re =     0.660 e 6     Ncrit =   9.000
  
   alpha    CL        CD       CDp       CM     Top_Xtr  Bot_Xtr
  ------ -------- --------- --------- -------- -------- --------
  -5.000  -0.3059   0.01225   0.00657  -0.0509   0.9621   0.0385
  -4.750  -0.2720   0.01198   0.00632  -0.0526   0.9591   0.0406
  -4.500  -0.2380   0.01167   0.00602  -0.0543   0.9553   0.0425
  -4.250  -0.2064   0.01102   0.00529  -0.0553   0.9495   0.0416
  -4.000  -0.1817   0.01040   0.00460  -0.0544   0.9414   0.0408
  -3.750  -0.1534   0.00983   0.00394  -0.0542   0.9239   0.0401
  -3.500  -0.1229   0.00940   0.00338  -0.0546   0.8992   0.0394
  -3.250  -0.0987   0.00912   0.00302  -0.0538   0.8801   0.0388
  -3.000  -0.0737   0.00894   0.00265  -0.0530   0.8297   0.0383
  -2.750  -0.0476   0.00880   0.00238  -0.0527   0.7957   0.0378
  -2.500  -0.0208   0.00865   0.00216  -0.0527   0.7812   0.0373
  -2.250   0.0053   0.00859   0.00196  -0.0524   0.7531   0.0369
  -2.000   0.0307   0.00860   0.00177  -0.0519   0.7135   0.0365
  -1.750   0.0577   0.00853   0.00163  -0.0519   0.6941   0.0361
  -1.500   0.0845   0.00849   0.00151  -0.0519   0.6759   0.0358
  -1.250   0.1099   0.00857   0.00140  -0.0515   0.6410   0.0355
  -1.000   0.1353   0.00866   0.00131  -0.0512   0.5986   0.0352
  -0.750   0.1617   0.00869   0.00123  -0.0511   0.5763   0.0351
  -0.500   0.1868   0.00884   0.00119  -0.0508   0.5396   0.0350
  -0.250   0.2127   0.00892   0.00115  -0.0507   0.5030   0.0351
   0.000   0.2398   0.00892   0.00111  -0.0507   0.4924   0.0354
   0.250   0.2661   0.00899   0.00106  -0.0506   0.4688   0.0418
   0.500   0.2903   0.00929   0.00116  -0.0502   0.4069   0.0474
   0.750   0.3169   0.00934   0.00123  -0.0503   0.3884   0.0513
   1.000   0.3419   0.00889   0.00122  -0.0502   0.3775   0.1996
   1.250   0.3652   0.00889   0.00132  -0.0500   0.3320   0.2785
   1.500   0.3903   0.00887   0.00137  -0.0499   0.2914   0.3514
   1.750   0.4141   0.00885   0.00148  -0.0497   0.2624   0.4542
   2.250   0.4554   0.00952   0.00203  -0.0481   0.0966   0.6638
   2.500   0.4760   0.00977   0.00231  -0.0470   0.0440   0.7653
   2.750   0.4979   0.00973   0.00250  -0.0455   0.0309   0.8900
   3.000   0.5395   0.00984   0.00273  -0.0487   0.0306   0.9731
   3.250   0.5778   0.01003   0.00294  -0.0513   0.0307   0.9979
   3.500   0.6049   0.01022   0.00314  -0.0515   0.0308   1.0000
   3.750   0.6293   0.01041   0.00335  -0.0510   0.0310   1.0000
   4.000   0.6538   0.01061   0.00357  -0.0506   0.0313   1.0000
   4.250   0.6783   0.01083   0.00381  -0.0502   0.0315   1.0000
   4.500   0.7029   0.01108   0.00408  -0.0498   0.0319   1.0000
   4.750   0.7274   0.01135   0.00437  -0.0494   0.0322   1.0000
   5.000   0.7519   0.01164   0.00470  -0.0490   0.0326   1.0000
