  
       XFOIL         Version 6.99
  
 Calculated polar for: NACA 2410                                       
  
 1 1 Reynolds number fixed          Mach number fixed         
  
 xtrf =   1.000 (top)        1.000 (bottom)  
 Mach =   0.000     Re =     0.720 e 6     Ncrit =   9.000
  
   alpha    CL        CD       CDp       CM     Top_Xtr  Bot_Xtr
  ------ -------- --------- --------- -------- -------- --------
  -5.000  -0.2993   0.01184   0.00628  -0.0522   0.9604   0.0378
  -4.750  -0.2658   0.01154   0.00599  -0.0538   0.9568   0.0395
  -4.500  -0.2320   0.01133   0.00580  -0.0555   0.9513   0.0418
  -4.250  -0.2067   0.01065   0.00505  -0.0548   0.9452   0.0410
  -4.000  -0.1808   0.01003   0.00434  -0.0542   0.9300   0.0401
  -3.750  -0.1496   0.00951   0.00367  -0.0547   0.9021   0.0393
  -3.500  -0.1252   0.00919   0.00327  -0.0539   0.8865   0.0386
  -3.250  -0.1003   0.00897   0.00287  -0.0531   0.8404   0.0380
  -3.000  -0.0749   0.00881   0.00256  -0.0526   0.7972   0.0375
  -2.750  -0.0481   0.00864   0.00232  -0.0526   0.7840   0.0370
  -2.500  -0.0220   0.00855   0.00210  -0.0523   0.7566   0.0365
  -2.250   0.0033   0.00855   0.00189  -0.0518   0.7163   0.0360
  -2.000   0.0301   0.00847   0.00173  -0.0518   0.6948   0.0356
  -1.750   0.0570   0.00842   0.00160  -0.0518   0.6767   0.0352
  -1.500   0.0824   0.00849   0.00148  -0.0514   0.6422   0.0349
  -1.250   0.1078   0.00855   0.00137  -0.0511   0.5997   0.0345
  -1.000   0.1344   0.00856   0.00128  -0.0511   0.5801   0.0343
  -0.750   0.1594   0.00872   0.00123  -0.0507   0.5395   0.0341
  -0.500   0.1854   0.00880   0.00117  -0.0506   0.5003   0.0339
  -0.250   0.2125   0.00879   0.00112  -0.0507   0.4915   0.0338
   0.000   0.2390   0.00885   0.00110  -0.0506   0.4712   0.0339
   0.250   0.2633   0.00913   0.00111  -0.0503   0.4119   0.0343
   0.500   0.2898   0.00921   0.00109  -0.0502   0.3845   0.0431
   0.750   0.3143   0.00952   0.00125  -0.0499   0.3346   0.0483
   1.000   0.3404   0.00965   0.00130  -0.0499   0.2953   0.0518
   1.250   0.3636   0.00945   0.00136  -0.0497   0.2612   0.2056
   1.500   0.3881   0.00942   0.00147  -0.0496   0.2322   0.2766
   1.750   0.4125   0.00946   0.00158  -0.0494   0.1955   0.3586
   2.000   0.4312   0.01029   0.00203  -0.0485   0.0473   0.4534
   2.250   0.4558   0.01003   0.00211  -0.0483   0.0448   0.5758
   2.500   0.4801   0.00993   0.00225  -0.0478   0.0297   0.6757
   2.750   0.5032   0.00975   0.00243  -0.0469   0.0295   0.7877
   3.000   0.5262   0.00965   0.00266  -0.0458   0.0295   0.9120
   3.250   0.5709   0.00982   0.00290  -0.0497   0.0297   0.9856
   3.500   0.6063   0.01002   0.00312  -0.0517   0.0299   1.0000
   3.750   0.6306   0.01021   0.00331  -0.0513   0.0301   1.0000
   4.000   0.6550   0.01041   0.00353  -0.0508   0.0304   1.0000
   4.250   0.6795   0.01063   0.00378  -0.0504   0.0307   1.0000
   4.500   0.7040   0.01088   0.00404  -0.0500   0.0310   1.0000
   4.750   0.7286   0.01115   0.00433  -0.0496   0.0314   1.0000
   5.000   0.7530   0.01144   0.00465  -0.0491   0.0318   1.0000
