  
       XFOIL         Version 6.99
  
 Calculated polar for: NACA 2410                                       
  
 1 1 Reynolds number fixed          Mach number fixed         
  
 xtrf =   1.000 (top)        1.000 (bottom)  
 Mach =   0.000     Re =     0.840 e 6     Ncrit =   9.000
  
   alpha    CL        CD       CDp       CM     Top_Xtr  Bot_Xtr
  ------ -------- --------- --------- -------- -------- --------
  -5.000  -0.2897   0.01124   0.00588  -0.0541   0.9563   0.0367
  -4.750  -0.2575   0.01088   0.00551  -0.0553   0.9502   0.0378
  -4.500  -0.2326   0.01068   0.00535  -0.0548   0.9435   0.0405
  -4.250  -0.2057   0.01010   0.00468  -0.0544   0.9251   0.0403
  -4.000  -0.1775   0.00955   0.00398  -0.0543   0.8980   0.0392
  -3.750  -0.1529   0.00918   0.00350  -0.0536   0.8743   0.0384
  -3.500  -0.1291   0.00898   0.00305  -0.0526   0.8107   0.0376
  -3.250  -0.1025   0.00875   0.00274  -0.0525   0.7918   0.0370
  -3.000  -0.0761   0.00858   0.00247  -0.0523   0.7714   0.0364
  -2.750  -0.0510   0.00854   0.00222  -0.0518   0.7334   0.0358
  -2.500  -0.0248   0.00846   0.00201  -0.0516   0.6986   0.0353
  -2.250   0.0021   0.00836   0.00184  -0.0516   0.6844   0.0348
  -2.000   0.0279   0.00837   0.00169  -0.0513   0.6521   0.0344
  -1.750   0.0530   0.00843   0.00156  -0.0510   0.6058   0.0340
  -1.500   0.0799   0.00839   0.00144  -0.0510   0.5893   0.0336
  -1.250   0.1056   0.00846   0.00136  -0.0507   0.5577   0.0332
  -1.000   0.1308   0.00860   0.00128  -0.0504   0.5063   0.0329
  -0.750   0.1578   0.00859   0.00120  -0.0505   0.4916   0.0326
  -0.500   0.1845   0.00862   0.00115  -0.0505   0.4747   0.0324
  -0.250   0.2095   0.00883   0.00113  -0.0502   0.4293   0.0322
   0.000   0.2359   0.00891   0.00110  -0.0502   0.3926   0.0321
   0.250   0.2608   0.00918   0.00115  -0.0500   0.3467   0.0321
   0.500   0.2856   0.00948   0.00118  -0.0498   0.2789   0.0323
   0.750   0.3026   0.01094   0.00164  -0.0485   0.0526   0.0332
   1.000   0.3295   0.01100   0.00171  -0.0485   0.0470   0.0468
   1.250   0.3564   0.01104   0.00177  -0.0486   0.0464   0.0499
   1.500   0.3833   0.01108   0.00183  -0.0487   0.0455   0.0524
   1.750   0.4084   0.01060   0.00186  -0.0488   0.0443   0.2317
   2.000   0.4343   0.01043   0.00191  -0.0488   0.0421   0.2982
   2.250   0.4602   0.01032   0.00204  -0.0487   0.0278   0.3949
   2.500   0.4857   0.01016   0.00219  -0.0486   0.0278   0.4955
   2.750   0.5107   0.00997   0.00236  -0.0484   0.0279   0.6093
   3.000   0.5340   0.00973   0.00255  -0.0478   0.0280   0.7396
   3.500   0.5957   0.00965   0.00303  -0.0493   0.0285   0.9798
   3.750   0.6306   0.00986   0.00326  -0.0512   0.0288   0.9981
   4.000   0.6573   0.01008   0.00349  -0.0512   0.0291   1.0000
   4.250   0.6816   0.01030   0.00372  -0.0507   0.0295   1.0000
   4.500   0.7061   0.01054   0.00398  -0.0503   0.0298   1.0000
   4.750   0.7305   0.01080   0.00426  -0.0499   0.0302   1.0000
   5.000   0.7550   0.01109   0.00457  -0.0495   0.0306   1.0000
