  
       XFOIL         Version 6.99
  
 Calculated polar for: NACA 2410                                       
  
 1 1 Reynolds number fixed          Mach number fixed         
  
 xtrf =   1.000 (top)        1.000 (bottom)  
 Mach =   0.000     Re =     0.780 e 6     Ncrit =   9.000
  
   alpha    CL        CD       CDp       CM     Top_Xtr  Bot_Xtr
  ------ -------- --------- --------- -------- -------- --------
  -5.000  -0.2940   0.01151   0.00605  -0.0532   0.9585   0.0372
  -4.750  -0.2608   0.01118   0.00572  -0.0547   0.9540   0.0386
  -4.500  -0.2316   0.01099   0.00558  -0.0553   0.9483   0.0412
  -4.250  -0.2074   0.01035   0.00486  -0.0544   0.9372   0.0406
  -4.000  -0.1775   0.00973   0.00410  -0.0545   0.9134   0.0396
  -3.750  -0.1515   0.00933   0.00358  -0.0541   0.8929   0.0388
  -3.500  -0.1267   0.00904   0.00315  -0.0533   0.8564   0.0381
  -3.250  -0.1022   0.00887   0.00278  -0.0526   0.7997   0.0374
  -3.000  -0.0753   0.00867   0.00251  -0.0525   0.7877   0.0368
  -2.750  -0.0491   0.00855   0.00227  -0.0523   0.7630   0.0363
  -2.500  -0.0240   0.00853   0.00205  -0.0518   0.7233   0.0358
  -2.250   0.0026   0.00845   0.00186  -0.0517   0.6964   0.0353
  -2.000   0.0295   0.00837   0.00171  -0.0517   0.6799   0.0349
  -1.750   0.0550   0.00842   0.00157  -0.0514   0.6454   0.0345
  -1.500   0.0804   0.00848   0.00145  -0.0510   0.6013   0.0341
  -1.250   0.1072   0.00846   0.00136  -0.0510   0.5849   0.0338
  -1.000   0.1324   0.00859   0.00129  -0.0507   0.5470   0.0335
  -0.750   0.1580   0.00869   0.00121  -0.0505   0.5002   0.0333
  -0.500   0.1852   0.00867   0.00115  -0.0506   0.4912   0.0331
  -0.250   0.2118   0.00872   0.00112  -0.0506   0.4731   0.0329
   0.000   0.2364   0.00897   0.00112  -0.0503   0.4216   0.0329
   0.250   0.2628   0.00905   0.00110  -0.0502   0.3884   0.0330
   0.500   0.2870   0.00941   0.00117  -0.0499   0.3295   0.0334
   0.750   0.3122   0.00967   0.00123  -0.0497   0.2725   0.0456
   1.000   0.3376   0.00991   0.00137  -0.0496   0.2439   0.0494
   1.250   0.3624   0.01023   0.00150  -0.0494   0.1967   0.0522
   1.500   0.3814   0.01073   0.00184  -0.0486   0.0520   0.2084
   1.750   0.4071   0.01055   0.00190  -0.0487   0.0464   0.2794
   2.000   0.4329   0.01036   0.00196  -0.0487   0.0447   0.3732
   2.250   0.4581   0.01015   0.00202  -0.0487   0.0409   0.4858
   2.500   0.4833   0.01004   0.00221  -0.0483   0.0286   0.5863
   2.750   0.5076   0.00986   0.00239  -0.0479   0.0286   0.6930
   3.000   0.5299   0.00967   0.00259  -0.0468   0.0287   0.8230
   3.250   0.5571   0.00962   0.00283  -0.0466   0.0288   0.9482
   3.500   0.6015   0.00982   0.00307  -0.0506   0.0291   0.9940
   3.750   0.6319   0.01003   0.00329  -0.0515   0.0294   1.0000
   4.000   0.6562   0.01023   0.00351  -0.0510   0.0297   1.0000
   4.250   0.6806   0.01046   0.00375  -0.0506   0.0300   1.0000
   4.500   0.7051   0.01070   0.00401  -0.0501   0.0303   1.0000
   4.750   0.7296   0.01097   0.00430  -0.0497   0.0307   1.0000
   5.000   0.7541   0.01125   0.00461  -0.0493   0.0311   1.0000
