  
       XFOIL         Version 6.99
  
 Calculated polar for: NACA 2410                                       
  
 1 1 Reynolds number fixed          Mach number fixed         
  
 xtrf =   1.000 (top)        1.000 (bottom)  
 Mach =   0.000     Re =     0.600 e 6     Ncrit =   9.000
  
   alpha    CL        CD       CDp       CM     Top_Xtr  Bot_Xtr
  ------ -------- --------- --------- -------- -------- --------
  -5.000  -0.3141   0.01275   0.00695  -0.0493   0.9638   0.0394
  -4.750  -0.2799   0.01251   0.00674  -0.0511   0.9611   0.0418
  -4.500  -0.2457   0.01210   0.00632  -0.0528   0.9581   0.0434
  -4.250  -0.2113   0.01141   0.00554  -0.0544   0.9537   0.0424
  -4.000  -0.1819   0.01083   0.00490  -0.0548   0.9482   0.0417
  -3.750  -0.1563   0.01026   0.00426  -0.0541   0.9381   0.0410
  -3.500  -0.1261   0.00973   0.00365  -0.0543   0.9199   0.0403
  -3.250  -0.0963   0.00936   0.00316  -0.0546   0.8978   0.0398
  -3.000  -0.0720   0.00912   0.00283  -0.0538   0.8760   0.0393
  -2.750  -0.0466   0.00896   0.00247  -0.0531   0.8252   0.0388
  -2.500  -0.0203   0.00883   0.00223  -0.0528   0.7951   0.0384
  -2.250   0.0066   0.00871   0.00204  -0.0528   0.7802   0.0380
  -2.000   0.0328   0.00865   0.00185  -0.0525   0.7528   0.0376
  -1.750   0.0583   0.00868   0.00167  -0.0521   0.7146   0.0373
  -1.500   0.0853   0.00863   0.00155  -0.0521   0.6947   0.0370
  -1.250   0.1122   0.00860   0.00144  -0.0520   0.6774   0.0367
  -1.000   0.1376   0.00869   0.00135  -0.0517   0.6421   0.0366
  -0.750   0.1627   0.00880   0.00126  -0.0513   0.5981   0.0365
  -0.500   0.1892   0.00883   0.00120  -0.0512   0.5766   0.0366
  -0.250   0.2147   0.00894   0.00116  -0.0510   0.5462   0.0370
   0.000   0.2402   0.00905   0.00110  -0.0507   0.5100   0.0398
   0.250   0.2671   0.00906   0.00116  -0.0507   0.4933   0.0491
   0.500   0.2927   0.00920   0.00122  -0.0506   0.4612   0.0506
   1.000   0.3411   0.00864   0.00126  -0.0503   0.3998   0.2787
   1.250   0.3669   0.00845   0.00129  -0.0503   0.3906   0.3615
   1.500   0.3920   0.00829   0.00135  -0.0502   0.3740   0.4517
   1.750   0.4144   0.00819   0.00147  -0.0496   0.3366   0.5787
   2.500   0.4766   0.00878   0.00210  -0.0463   0.1685   0.8831
   2.750   0.5080   0.00990   0.00258  -0.0477   0.0333   0.9613
   3.000   0.5486   0.01009   0.00279  -0.0508   0.0322   0.9945
   3.250   0.5791   0.01026   0.00297  -0.0517   0.0321   1.0000
   3.500   0.6034   0.01044   0.00316  -0.0512   0.0321   1.0000
   3.750   0.6279   0.01063   0.00337  -0.0507   0.0322   1.0000
   4.000   0.6524   0.01084   0.00360  -0.0503   0.0324   1.0000
   4.250   0.6770   0.01106   0.00386  -0.0499   0.0327   1.0000
   4.500   0.7016   0.01131   0.00413  -0.0495   0.0329   1.0000
   4.750   0.7262   0.01157   0.00442  -0.0491   0.0333   1.0000
   5.000   0.7506   0.01187   0.00476  -0.0487   0.0336   1.0000
